Circuit: * C:\Users\Harshith\Desktop\Analog lab\LAB5\Draft3.asc

Early termination of direct N-R iteration.
Direct Newton iteration failed to find .op point.  (Use ".option noopiter" to skip.)
Starting Gmin stepping
Gmin = 10
vernier = 0.5
vernier = 0.25
vernier = 0.125
Gmin = 5.5165
vernier = 0.0625
vernier = 0.03125
vernier = 0.015625
vernier = 0.0078125
Gmin = 5.49501
vernier = 0.00390625
vernier = 0.00195313
vernier = 0.000976563
vernier = 0.000488281
Gmin = 5.50104
Gmin = 0
Gmin stepping failed

Starting source stepping with srcstepmethod=0
Source Step = 3.0303%
Source Step = 14.3939%
Source Step = 21.9697%
Source Step = 29.5455%
Source Step = 37.1212%
Source Step = 44.697%
vernier = 0.375
Source Step = 54.5455%
Source Step = 65.9091%
Source Step = 77.2727%
Source Step = 88.6364%
Source Step = 100%
Source stepping succeeded in finding the operating point.


Date: Thu Mar 04 22:10:52 2021
Total elapsed time: 0.244 seconds.

tnom = 27
temp = 27
method = modified trap
totiter = 9008
traniter = 6978
tranpoints = 2567
accept = 2076
rejected = 491
matrix size = 64
fillins = 246
solver = Normal
Matrix Compiler1: 18.56 KB object code size  2.2/1.1/[0.6]
Matrix Compiler2: 9.82 KB object code size  1.2/1.3/[0.4]

