Circuit: * C:\Users\Harshith\Desktop\Analog lab\LAB5\q1.asc

Early termination of direct N-R iteration.
Direct Newton iteration failed to find .op point.  (Use ".option noopiter" to skip.)
Starting Gmin stepping
Gmin = 10
vernier = 0.5
vernier = 0.25
vernier = 0.125
Gmin = 5.5165
vernier = 0.0625
vernier = 0.03125
vernier = 0.015625
vernier = 0.0078125
Gmin = 5.49501
vernier = 0.00390625
vernier = 0.00195313
vernier = 0.000976563
vernier = 0.000488281
Gmin = 5.50104
Gmin = 0
Gmin stepping failed

Starting source stepping with srcstepmethod=0
Source Step = 3.0303%
Source Step = 33.3333%
Source Step = 63.6364%
Source Step = 93.9394%
Source stepping succeeded in finding the operating point.


Date: Thu Mar 04 22:59:17 2021
Total elapsed time: 0.159 seconds.

tnom = 27
temp = 27
method = modified trap
totiter = 5006
traniter = 3361
tranpoints = 1446
accept = 1297
rejected = 149
matrix size = 50
fillins = 191
solver = Normal
Matrix Compiler1: 14.05 KB object code size  1.8/0.9/[0.4]
Matrix Compiler2: 7.69 KB object code size  0.9/0.8/[0.3]

