Circuit: * Z:\home\solomon\VLSI\Assignments\Assignment 1\Q1_a.asc


Date: Sun Oct 24 14:47:34 2021
Total elapsed time: 0.040 seconds.

tnom = 27
temp = 27
method = trap
totiter = 0
traniter = 0
tranpoints = 0
accept = 0
rejected = 0
matrix size = 4
fillins = 0
solver = Normal

