Circuit: * Z:\home\solomon\VLSI\Assignments\Assignment 1\Simulation\Q2.asc

Direct Newton iteration for .op point succeeded.

Date: Tue Nov 02 17:08:52 2021
Total elapsed time: 0.052 seconds.

tnom = 27
temp = 27
method = modified trap
totiter = 2090
traniter = 2082
tranpoints = 1042
accept = 1042
rejected = 0
matrix size = 5
fillins = 0
solver = Normal
Matrix Compiler1: 150 bytes object code size  0.1/0.1/[0.1]
Matrix Compiler2: 321 bytes object code size  0.1/0.1/[0.1]

