Circuit: * Z:\home\solomon\VLSI\Assignments\Assignment 1\Simulation\Q4.asc

Ignoring BSIM parameter XL
Ignoring BSIM parameter XW
Warning: Pd = 0 is less than W.
Warning: Ps = 0 is less than W.

Date: Thu Oct 28 10:34:37 2021
Total elapsed time: 0.061 seconds.

tnom = 27
temp = 27
method = trap
totiter = 2004
traniter = 0
tranpoints = 0
accept = 0
rejected = 0
matrix size = 4
fillins = 0
solver = Normal
Matrix Compiler1: 118 bytes object code size  0.1/0.1/[0.1]
Matrix Compiler2: 216 bytes object code size  0.1/0.1/[0.1]

