Circuit: * Z:\home\solomon\VLSI\Assignments\Assignment 1\Simulation\Q4_nmos_lc.asc

Ignoring BSIM parameter XL
Ignoring BSIM parameter XW
Warning: Pd = 0 is less than W.
Warning: Ps = 0 is less than W.
.step vgs=0.4
.step vgs=0.5
.step vgs=0.6
.step vgs=0.7
.step vgs=0.8
.step vgs=0.9

Date: Tue Nov 02 21:07:10 2021
Total elapsed time: 0.261 seconds.

tnom = 27
temp = 27
method = trap
totiter = 3605
traniter = 0
tranpoints = 0
accept = 0
rejected = 0
matrix size = 4
fillins = 0
solver = Normal
Matrix Compiler1: 118 bytes object code size  0.1/0.1/[0.1]
Matrix Compiler2: 216 bytes object code size  0.1/0.1/[0.1]

