Circuit: * Z:\home\solomon\VLSI\Assignments\Assignment 1\Simulation\Q4_pmos_sc.asc

Ignoring BSIM parameter XL
Ignoring BSIM parameter XW
Warning: Pd = 0 is less than W.
Warning: Ps = 0 is less than W.

Date: Tue Nov 02 21:11:46 2021
Total elapsed time: 0.082 seconds.

tnom = 27
temp = 27
method = trap
totiter = 3605
traniter = 0
tranpoints = 0
accept = 0
rejected = 0
matrix size = 4
fillins = 0
solver = Normal
Matrix Compiler1: 82 bytes object code size  0.1/0.1/[0.1]
Matrix Compiler2: 268 bytes object code size  0.1/0.1/[0.1]

