Circuit: * Z:\home\solomon\VLSI\Assignments\Assignment 1\Q4_pmos.asc

Ignoring BSIM parameter XL
Ignoring BSIM parameter XW
Warning: Pd = 0 is less than W.
Warning: Ps = 0 is less than W.
.step vsg=0.4
.step vsg=0.5
.step vsg=0.6
.step vsg=0.7
.step vsg=0.8
.step vsg=0.9

Date: Sun Oct 24 17:18:26 2021
Total elapsed time: 0.259 seconds.

tnom = 27
temp = 27
method = trap
totiter = 3605
traniter = 0
tranpoints = 0
accept = 0
rejected = 0
matrix size = 4
fillins = 0
solver = Normal
Matrix Compiler1: 82 bytes object code size  0.1/0.1/[0.1]
Matrix Compiler2: 268 bytes object code size  0.1/0.1/[0.1]

