Circuit: * Z:\home\solomon\VLSI\Assignments\Assignment 1\Simulation\Q5.asc

Limiting fall time of source v1 to 0.1
.OP point found by inspection.

Date: Tue Nov 02 21:04:41 2021
Total elapsed time: 0.700 seconds.

tnom = 27
temp = 27
method = modified trap
totiter = 100082
traniter = 100082
tranpoints = 50042
accept = 50037
rejected = 5
matrix size = 3
fillins = 0
solver = Normal
Matrix Compiler1: 50 bytes object code size  0.1/0.1/[0.1]
Matrix Compiler2:      15 opcodes  0.1/[0.1]/0.1

