Circuit: * C:\Users\Harshith\Desktop\IITH\Draft5.asc

Limiting fall time of source v1 to 0.1
.OP point found by inspection.

Date: Tue Nov 02 23:54:43 2021
Total elapsed time: 0.134 seconds.

tnom = 27
temp = 27
method = modified trap
totiter = 2104
traniter = 2104
tranpoints = 1053
accept = 1053
rejected = 0
matrix size = 3
fillins = 0
solver = Normal
Matrix Compiler1: 50 bytes object code size  0.0/0.0/[0.0]
Matrix Compiler2: 175 bytes object code size  0.1/0.1/[0.0]

