Circuit: * C:\Users\Harshith\Desktop\IITH\Q2.asc

Direct Newton iteration for .op point succeeded.
Semiconductor Device Operating Points:
                        --- Diodes ---
Name:      d2          d1
Model:    d_14        d_14
Id:      2.75e-04    2.75e-04
Vd:      7.00e-01    7.00e-01
Req:     1.00e+03    1.00e+03
CAP:     0.00e+00    0.00e+00



Date: Tue Nov 02 20:54:40 2021
Total elapsed time: 0.044 seconds.

tnom = 27
temp = 27
method = trap
totiter = 4
traniter = 0
tranpoints = 0
accept = 0
rejected = 0
matrix size = 5
fillins = 0
solver = Normal
Matrix Compiler1: 150 bytes object code size
Matrix Compiler2: 321 bytes object code size
