Circuit: * C:\Users\Harshith\Desktop\IITH\Q5.asc

Limiting fall time of source v1 to 0.1
.OP point found by inspection.

Date: Wed Nov 03 03:07:57 2021
Total elapsed time: 0.079 seconds.

tnom = 27
temp = 27
method = modified trap
totiter = 2104
traniter = 2104
tranpoints = 1053
accept = 1053
rejected = 0
matrix size = 3
fillins = 0
solver = Normal
Matrix Compiler1:       3 opcodes  0.0/[0.0]/0.1
Matrix Compiler2: 175 bytes object code size  0.0/0.0/[0.0]

