Circuit: * C:\Users\Harshith\Desktop\Analog lab\LAB9\q1.asc

Early termination of direct N-R iteration.
Direct Newton iteration failed to find .op point.  (Use ".option noopiter" to skip.)
Starting Gmin stepping
Gmin = 10
vernier = 0.5
vernier = 0.25
vernier = 0.125
Gmin = 5.5165
vernier = 0.0625
vernier = 0.03125
vernier = 0.015625
vernier = 0.0078125
Gmin = 5.49501
vernier = 0.00390625
vernier = 0.00195313
vernier = 0.000976563
vernier = 0.000488281
Gmin = 5.50104
Gmin = 0
Gmin stepping failed

Starting source stepping with srcstepmethod=0
Source Step = 3.0303%
Source Step = 33.3333%
Source Step = 63.6364%
Source Step = 93.9394%
Source stepping succeeded in finding the operating point.

Ignoring empty pin current: Ix(u1:nc)
Ignoring empty pin current: Ix(u1:nc)
Ignoring empty pin current: Ix(u1:nc)
Ignoring empty pin current: Ix(u1:nc)
Ignoring empty pin current: Ix(u1:nc)
Ignoring empty pin current: Ix(u1:nc)
Ignoring empty pin current: Ix(u1:nc)
Ignoring empty pin current: Ix(u1:nc)

Date: Fri Apr 23 08:46:48 2021
Total elapsed time: 4.880 seconds.

tnom = 27
temp = 27
method = modified trap
totiter = 311219
traniter = 309531
tranpoints = 86178
accept = 60126
rejected = 26052
matrix size = 120
fillins = 588
solver = Normal
Thread vector: 21.2/10.1[2] 2.2/1.6[2] 6.4/1.7[2] 1.6/16.2[1]  2592/500
Matrix Compiler1: 64.28 KB object code size  7.7/4.0/[1.9]
Matrix Compiler2: 20.82 KB object code size  5.9/4.7/[4.5]

