Circuit: * C:\Users\Harshith\Desktop\Analog lab\LAB9\q2.asc

Early termination of direct N-R iteration.
Direct Newton iteration failed to find .op point.  (Use ".option noopiter" to skip.)
Starting Gmin stepping
Gmin = 10
vernier = 0.5
vernier = 0.25
vernier = 0.125
Gmin = 5.6588
vernier = 0.0625
vernier = 0.03125
vernier = 0.015625
Gmin = 5.48561
vernier = 0.0078125
vernier = 0.00390625
vernier = 0.00195313
vernier = 0.000976563
Gmin = 5.49362
vernier = 0.000488281
Gmin = 0
Gmin stepping failed

Starting source stepping with srcstepmethod=0
Source Step = 3.0303%
Source Step = 33.3333%
Source Step = 63.6364%
Source Step = 93.9394%
Source stepping succeeded in finding the operating point.

Ignoring empty pin current: Ix(u1:nc)
Ignoring empty pin current: Ix(u1:nc)
Ignoring empty pin current: Ix(u1:nc)
Ignoring empty pin current: Ix(u1:nc)
Ignoring empty pin current: Ix(u1:nc)
Ignoring empty pin current: Ix(u1:nc)
Ignoring empty pin current: Ix(u1:nc)
Ignoring empty pin current: Ix(u1:nc)

Date: Fri Apr 23 09:57:52 2021
Total elapsed time: 7.138 seconds.

tnom = 27
temp = 27
method = modified trap
totiter = 247134
traniter = 245471
tranpoints = 81195
accept = 57468
rejected = 23727
matrix size = 142
fillins = 947
solver = Normal
Thread vector: 11.7/5.7[2] 3.1/3.2[1] 4.0/2.3[2] 1.6/1.2[2]  2592/500
Matrix Compiler1: 135.78 KB object code size  23.7/12.5/[6.5]
Matrix Compiler2: 28.88 KB object code size  6.4/5.5/[2.7]

