Circuit: * C:\Users\Harshith\Desktop\IITH\VLSI\ASS2\q1b.asc

Ignoring BSIM parameter XL
Ignoring BSIM parameter XW
Warning: Pd = 0 is less than W.
Warning: Ps = 0 is less than W.
Direct Newton iteration for .op point succeeded.
.step vdd=0.5
.step vdd=0.6
.step vdd=0.7
.step vdd=0.8
.step vdd=0.9
.step vdd=1
.step vdd=1.1
.step vdd=1.2
.step vdd=1.3
.step vdd=1.4
.step vdd=1.5
.step vdd=1.6
.step vdd=1.7
.step vdd=1.8

Date: Wed Nov 10 01:11:58 2021
Total elapsed time: 0.519 seconds.

tnom = 27
temp = 27
method = modified trap
totiter = 2157
traniter = 2153
tranpoints = 1073
accept = 1065
rejected = 8
matrix size = 3
fillins = 0
solver = Normal
Matrix Compiler1: off  [0.0]/0.0/0.0
Matrix Compiler2: 175 bytes object code size  0.0/0.0/[0.0]

