Circuit: * C:\Users\Harshith\Desktop\IITH\VLSI\ASS2\Q42.asc

Ignoring BSIM parameter XL
Ignoring BSIM parameter XW
Warning: Pd = 0 is less than W.
Warning: Ps = 0 is less than W.
Direct Newton iteration for .op point succeeded.

Date: Mon Nov 08 18:03:02 2021
Total elapsed time: 0.170 seconds.

tnom = 27
temp = 27
method = modified trap
totiter = 2100
traniter = 2096
tranpoints = 1049
accept = 1049
rejected = 0
matrix size = 3
fillins = 0
solver = Normal
Matrix Compiler1: 50 bytes object code size  0.1/0.1/[0.1]
Matrix Compiler2: 175 bytes object code size  0.1/0.2/[0.1]

