Circuit: * C:\Users\Harshith\Desktop\IITH\VLSI\ASS2\q5a.asc

Ignoring BSIM parameter XL
Ignoring BSIM parameter XW
Warning: Pd = 0 is less than W.
Warning: Ps = 0 is less than W.

Date: Tue Nov 09 23:32:04 2021
Total elapsed time: 0.158 seconds.

tnom = 27
temp = 27
method = trap
totiter = 5004
traniter = 0
tranpoints = 0
accept = 0
rejected = 0
matrix size = 5
fillins = 0
solver = Normal
Matrix Compiler1: 114 bytes object code size  0.1/0.1/[0.1]
Matrix Compiler2: 301 bytes object code size  0.1/0.1/[0.1]

