Circuit: * C:\Users\Harshith\Desktop\IITH\VLSI\ASS2\q5c.asc

Ignoring BSIM parameter XL
Ignoring BSIM parameter XW
Warning: Pd = 0 is less than W.
Warning: Ps = 0 is less than W.
Direct Newton iteration for .op point succeeded.

Date: Wed Nov 10 02:11:03 2021
Total elapsed time: 0.094 seconds.

tnom = 27
temp = 27
method = modified trap
totiter = 2314
traniter = 2310
tranpoints = 1146
accept = 1135
rejected = 11
matrix size = 5
fillins = 0
solver = Normal
Matrix Compiler1: 114 bytes object code size  0.0/0.0/[0.0]
Matrix Compiler2: 301 bytes object code size  0.0/0.0/[0.0]

