Circuit: * C:\Users\Harshith\Desktop\Analog lab\LAB2\Draft6.asc

Direct Newton iteration for .op point succeeded.

Date: Sat Feb 06 23:39:08 2021
Total elapsed time: 0.138 seconds.

tnom = 27
temp = 27
method = trap
totiter = 6
traniter = 0
tranpoints = 0
accept = 0
rejected = 0
matrix size = 31
fillins = 6
solver = Normal
Matrix Compiler1:     170 opcodes
Matrix Compiler2: 3.32 KB object code size
