Circuit: * C:\Users\Harshith\Desktop\Analog lab\LAB2\Draft1.asc

Direct Newton iteration for .op point succeeded.

Date: Tue Feb 23 22:13:38 2021
Total elapsed time: 0.177 seconds.

tnom = 27
temp = 27
method = modified trap
totiter = 15020
traniter = 15004
tranpoints = 6776
accept = 5712
rejected = 1064
matrix size = 20
fillins = 4
solver = Normal
Matrix Compiler1: 2.34 KB object code size  0.3/0.2/[0.1]
Matrix Compiler2: off  [0.1]/0.2/0.2

