Circuit: * C:\Users\Harshith\Desktop\Analog lab\LAB2\Q1.asc

Direct Newton iteration for .op point succeeded.

Date: Sat Feb 06 21:37:07 2021
Total elapsed time: 0.056 seconds.

tnom = 27
temp = 27
method = modified trap
totiter = 3394
traniter = 3387
tranpoints = 1288
accept = 1212
rejected = 76
matrix size = 10
fillins = 0
solver = Normal
Matrix Compiler1:      41 opcodes  0.1/[0.1]/0.1
Matrix Compiler2: off  [0.1]/0.1/0.1

