Circuit: * C:\Users\Harshith\Desktop\Analog lab\LAB2\Q2.asc

Direct Newton iteration for .op point succeeded.

Date: Sat Feb 06 22:21:17 2021
Total elapsed time: 0.089 seconds.

tnom = 27
temp = 27
method = modified trap
totiter = 2089
traniter = 2083
tranpoints = 1042
accept = 1042
rejected = 0
matrix size = 31
fillins = 6
solver = Normal
Matrix Compiler1: 3.01 KB object code size  0.6/0.3/[0.2]
Matrix Compiler2: 3.32 KB object code size  0.3/0.4/[0.2]

