Circuit: * C:\Users\Harshith\Desktop\Analog lab\Draft2.asc


Date: Sat Jan 30 02:51:42 2021
Total elapsed time: 0.086 seconds.

tnom = 27
temp = 27
method = trap
totiter = 154
traniter = 0
tranpoints = 0
accept = 0
rejected = 0
matrix size = 9
fillins = 0
solver = Normal
Matrix Compiler1: 404 bytes object code size  0.1/0.1/[0.0]
Matrix Compiler2: 763 bytes object code size  0.1/0.1/[0.1]

