Circuit: * C:\Users\Harshith\Desktop\Analog lab\Draft1.asc

Direct Newton iteration for .op point succeeded.

Date: Fri Jan 29 16:38:56 2021
Total elapsed time: 0.046 seconds.

tnom = 27
temp = 27
method = modified trap
totiter = 2267
traniter = 2261
tranpoints = 1075
accept = 1065
rejected = 10
matrix size = 10
fillins = 1
solver = Normal
Matrix Compiler1: 596 bytes object code size  0.1/0.1/[0.1]
Matrix Compiler2: 816 bytes object code size  0.1/0.1/[0.0]

