Circuit: * C:\Users\Harshith\Desktop\Analog lab\Ex1_q2.asc

Direct Newton iteration for .op point succeeded.

Date: Sun Jan 31 23:20:14 2021
Total elapsed time: 0.095 seconds.

tnom = 27
temp = 27
method = modified trap
totiter = 2089
traniter = 2083
tranpoints = 1042
accept = 1042
rejected = 0
matrix size = 10
fillins = 1
solver = Normal
Matrix Compiler1: 596 bytes object code size  0.2/0.1/[0.1]
Matrix Compiler2: 816 bytes object code size  0.1/0.2/[0.1]

