Circuit: * C:\Users\Harshith\Desktop\Analog lab\LAB7\Q1.asc

WARNING: Node N013 is floating.
WARNING: Node N019 is floating.
WARNING: Node OUT is floating.

WARNING: Less than two connections to node OUT.  This node is used by C5.
Direct Newton iteration for .op point succeeded.

Date: Tue Apr 06 20:08:46 2021
Total elapsed time: 0.374 seconds.

tnom = 27
temp = 27
method = modified trap
totiter = 35182
traniter = 35176
tranpoints = 17589
accept = 14193
rejected = 3396
matrix size = 49
fillins = 62
solver = Normal
Matrix Compiler1: 7.40 KB object code size  1.9/1.2/[0.6]
Matrix Compiler2: 5.38 KB object code size  0.9/1.0/[0.5]

