Circuit: * C:\Users\Harshith\Desktop\Analog lab\New folder\q_1.asc

Early termination of direct N-R iteration.
Direct Newton iteration failed to find .op point.  (Use ".option noopiter" to skip.)
Starting Gmin stepping
Gmin = 10
vernier = 0.5
vernier = 0.25
vernier = 0.125
Gmin = 5.5165
vernier = 0.0625
vernier = 0.03125
vernier = 0.015625
vernier = 0.0078125
Gmin = 5.49501
vernier = 0.00390625
vernier = 0.00195313
vernier = 0.000976563
vernier = 0.000488281
Gmin = 5.50104
Gmin = 0
Gmin stepping failed

Starting source stepping with srcstepmethod=0
Source Step = 3.0303%
Source Step = 33.3333%
Source Step = 63.6364%
Source Step = 93.9394%
Source stepping succeeded in finding the operating point.

Changing Tseed to 9.76562e-010
Changing Tseed to 9.76562e-012

Date: Thu Apr 08 22:48:12 2021
Total elapsed time: 1.188 seconds.

tnom = 27
temp = 27
method = modified trap
totiter = 49312
traniter = 47649
tranpoints = 14342
accept = 10127
rejected = 4213
matrix size = 106
fillins = 613
solver = Normal
Thread vector: 12.1/8.2[2] 2.4/2.2[1] 3.4/2.6[2] 1.2/1.9[1]  2592/500
Matrix Compiler1: 66.74 KB object code size  10.9/5.2/[2.7]
Matrix Compiler2: 19.96 KB object code size  5.1/4.7/[2.2]

