Circuit: * C:\Users\Harshith\Desktop\IITH\VLSI\ASS3\q2 (2).asc

Warning: Multiple definitions of model "pch_ss" Type: BSIM3
Warning: Multiple definitions of model "pch_ff" Type: BSIM3
Warning: Multiple definitions of model "pch_tt" Type: BSIM3
Warning: Multiple definitions of model "nch_ss" Type: BSIM3
Warning: Multiple definitions of model "nch_ff" Type: BSIM3
Warning: Multiple definitions of model "nch_tt" Type: BSIM3
Ignoring BSIM parameter XL
Ignoring BSIM parameter XW
Ignoring BSIM parameter XL
Ignoring BSIM parameter XW
Warning: Pd = 0 is less than W.
Warning: Ps = 0 is less than W.
Warning: Pd = 0 is less than W.
Warning: Ps = 0 is less than W.
Direct Newton iteration for .op point succeeded.
.step s=1
.step s=2
.step s=3
.step s=4
.step s=5
.step s=6

Date: Thu Nov 25 23:32:59 2021
Total elapsed time: 0.991 seconds.

tnom = 27
temp = 27
method = modified trap
totiter = 9749
traniter = 9740
tranpoints = 4007
accept = 3700
rejected = 307
matrix size = 5
fillins = 0
solver = Normal
Matrix Compiler1:       8 opcodes  0.1/0.1/[0.0]
Matrix Compiler2: off  [0.1]/0.1/0.1

