Circuit: * C:\Users\Harshith\Desktop\IITH\VLSI\ASS3\qu1.asc

Ignoring BSIM parameter XL
Ignoring BSIM parameter XW
Ignoring BSIM parameter XL
Ignoring BSIM parameter XW
WARNING: Less than two connections to node BL.  This node is used by M6.
WARNING: Less than two connections to node BLBAR.  This node is used by M5.
Warning: Pd = 0 is less than W.
Warning: Ps = 0 is less than W.
Warning: Pd = 0 is less than W.
Warning: Ps = 0 is less than W.
Warning: Pd = 0 is less than W.
Warning: Ps = 0 is less than W.
Direct Newton iteration for .op point succeeded.

Date: Thu Nov 25 15:53:35 2021
Total elapsed time: 0.163 seconds.

tnom = 27
temp = 27
method = modified trap
totiter = 421
traniter = 417
tranpoints = 149
accept = 147
rejected = 2
matrix size = 8
fillins = 0
solver = Normal
Matrix Compiler1: 318 bytes object code size  0.1/0.1/[0.1]
Matrix Compiler2: 662 bytes object code size  0.1/0.1/[0.1]

