Circuit: * C:\Users\Harshith\Desktop\IITH\Analog circuits\Mini-project3\Draft4.asc

Direct Newton iteration for .op point succeeded.
N-Period=1
Fourier components of V(out)
DC component:0.473781

Harmonic	Frequency	 Fourier 	Normalized	 Phase  	Normalized
 Number 	  [Hz]   	Component	 Component	[degree]	Phase [deg]
    1   	1.000e+03	4.134e-01	1.000e+00	   -0.07°	    0.00°
    2   	2.000e+03	3.273e-02	7.917e-02	   89.52°	   89.59°
    3   	3.000e+03	1.121e-01	2.712e-01	   -0.13°	   -0.07°
    4   	4.000e+03	2.498e-02	6.042e-02	   89.13°	   89.19°
    5   	5.000e+03	4.196e-02	1.015e-01	    0.16°	    0.22°
    6   	6.000e+03	1.371e-02	3.317e-02	   89.13°	   89.20°
    7   	7.000e+03	1.315e-02	3.182e-02	    1.33°	    1.39°
    8   	8.000e+03	4.110e-03	9.943e-03	   90.03°	   90.10°
    9   	9.000e+03	1.475e-03	3.568e-03	    8.47°	    8.54°
Total Harmonic Distortion: 30.985783%(31.032813%)



Date: Sat Dec 11 23:41:47 2021
Total elapsed time: 0.241 seconds.

tnom = 27
temp = 27
method = modified trap
totiter = 2203
traniter = 2176
tranpoints = 1044
accept = 1044
rejected = 0
matrix size = 43
fillins = 6
solver = Normal
Matrix Compiler1: 6.43 KB object code size  1.1/0.6/[0.3]
Matrix Compiler2: 4.99 KB object code size  0.5/0.6/[0.3]

