Circuit: * C:\Users\Harshith\Desktop\IITH\Analog circuits\Mini-project3\Draft21.asc

Number of points per decade reduced from 1000000 to 4429.
Direct Newton iteration for .op point succeeded.
Note: .fourier statements are only valid with a .tran command.
      No Fourier analysis performed.

Note: .fourier statements are only valid with a .tran command.
      No Fourier analysis performed.


Date: Sat Dec 11 19:09:55 2021
Total elapsed time: 1.298 seconds.

tnom = 27
temp = 27
method = trap
totiter = 17
traniter = 0
tranpoints = 0
accept = 0
rejected = 0
matrix size = 46
fillins = 2
solver = Normal
Matrix Compiler1:     337 opcodes
Matrix Compiler2: 5.14 KB object code size
