Circuit: * C:\Users\Harshith\Desktop\IITH\Analog circuits\Mini-project3\q1.asc

Number of points per decade reduced from 1000000 to 4429.
Direct Newton iteration for .op point succeeded.

Date: Sat Dec 11 23:46:22 2021
Total elapsed time: 1.333 seconds.

tnom = 27
temp = 27
method = trap
totiter = 12
traniter = 0
tranpoints = 0
accept = 0
rejected = 0
matrix size = 46
fillins = 2
solver = Normal
Matrix Compiler1:     337 opcodes
Matrix Compiler2: 5.14 KB object code size
