Circuit: * C:\Users\Harshith\Desktop\IITH\Analog circuits\Mini-project3\q2.asc

V1: Missing value, assumed 0V @ DC
Note: .fourier statements are only valid with a .tran command.
      No Fourier analysis performed.


Date: Sat Dec 11 20:55:01 2021
Total elapsed time: 0.197 seconds.

tnom = 27
temp = 27
method = trap
totiter = 2211
traniter = 0
tranpoints = 0
accept = 0
rejected = 0
matrix size = 42
fillins = 4
solver = Normal
Matrix Compiler1: 5.90 KB object code size  1.2/0.7/[0.3]
Matrix Compiler2: 4.87 KB object code size  0.5/0.7/[0.3]

