Circuit: * Z:\home\solomon\VLSI\Assignments\Assignment 2\Simulation\Q1_nmos_240_180.asc

Ignoring BSIM parameter XL
Ignoring BSIM parameter XW
Warning: Pd = 0 is less than W.
Warning: Ps = 0 is less than W.
Direct Newton iteration for .op point succeeded.

Date: Sun Nov 07 12:05:24 2021
Total elapsed time: 0.126 seconds.

tnom = 27
temp = 27
method = modified trap
totiter = 2142
traniter = 2139
tranpoints = 1064
accept = 1058
rejected = 6
matrix size = 3
fillins = 0
solver = Normal
Matrix Compiler1: 50 bytes object code size  0.2/0.2/[0.1]
Matrix Compiler2: 175 bytes object code size  0.2/0.2/[0.2]

