Circuit: * Z:\home\solomon\VLSI\Assignments\Assignment 2\Simulation\Q1_pmos_400_180.asc

Direct Newton iteration for .op point succeeded.
Changing Tseed to 9.76562e-010
Changing Tseed to 9.76562e-012

Date: Sun Nov 07 12:30:21 2021
Total elapsed time: 0.114 seconds.

tnom = 27
temp = 27
method = modified trap
totiter = 2164
traniter = 2159
tranpoints = 1067
accept = 1064
rejected = 1
matrix size = 3
fillins = 0
solver = Normal
Matrix Compiler1: 50 bytes object code size  0.1/0.1/[0.1]
Matrix Compiler2: 175 bytes object code size  0.1/0.1/[0.1]

