Circuit: * Z:\home\solomon\VLSI\Assignments\Assignment 2\Simulation\Q4.asc

Ignoring BSIM parameter XL
Ignoring BSIM parameter XW
Error on line 19 : vg vg 0 v
	 Unknown parameter "v"
Warning: Pd = 0 is less than W.
Warning: Ps = 0 is less than W.
Vg: Missing value, assumed 0V @ DC

Date: Sun Nov 07 11:00:03 2021
Total elapsed time: 0.156 seconds.

tnom = 27
temp = 27
method = trap
totiter = 2413
traniter = 0
tranpoints = 0
accept = 0
rejected = 0
matrix size = 16
fillins = 0
solver = Normal
Matrix Compiler1: 628 bytes object code size  0.3/0.3/[0.2]
Matrix Compiler2: 1.03 KB object code size  0.3/0.4/[0.2]

