Circuit: * C:\Users\Harshith\Desktop\Analog lab\LAB8\q1.asc

.OP point found by inspection.

Date: Wed Apr 14 15:27:02 2021
Total elapsed time: 0.057 seconds.

tnom = 27
temp = 27
method = modified trap
totiter = 2222
traniter = 2222
tranpoints = 1042
accept = 1042
rejected = 0
matrix size = 3
fillins = 0
solver = Normal
Matrix Compiler1: 86 bytes object code size  0.0/0.0/[0.0]
Matrix Compiler2: 163 bytes object code size  0.0/0.0/[0.0]

