Circuit: * C:\Users\Harshith\Desktop\IITH\Analog circuits\Mini-Project2\Draft4.asc

Direct Newton iteration for .op point succeeded.
N-Period=1
Fourier components of V(n007)
DC component:0.602123

Harmonic	Frequency	 Fourier 	Normalized	 Phase  	Normalized
 Number 	  [Hz]   	Component	 Component	[degree]	Phase [deg]
    1   	1.000e+03	3.540e-24	1.000e+00	  -77.69°	    0.00°
    2   	2.000e+03	1.220e-23	3.446e+00	  -68.19°	    9.49°
    3   	3.000e+03	2.210e-23	6.242e+00	  -65.32°	   12.36°
    4   	4.000e+03	3.314e-23	9.361e+00	  -71.88°	    5.81°
    5   	5.000e+03	5.244e-23	1.481e+01	  -80.88°	   -3.20°
    6   	6.000e+03	8.397e-23	2.372e+01	  -82.75°	   -5.06°
    7   	7.000e+03	1.217e-22	3.438e+01	  -78.92°	   -1.23°
    8   	8.000e+03	1.568e-22	4.430e+01	  -74.10°	    3.58°
    9   	9.000e+03	1.862e-22	5.258e+01	  -71.85°	    5.84°
Total Harmonic Distortion: 8263.929709%(57652816971.107040%)



Date: Thu Oct 21 21:52:44 2021
Total elapsed time: 0.193 seconds.

tnom = 27
temp = 27
method = modified trap
totiter = 2088
traniter = 2082
tranpoints = 1042
accept = 1042
rejected = 0
matrix size = 21
fillins = 2
solver = Normal
Matrix Compiler1: 2.13 KB object code size  0.5/0.3/[0.2]
Matrix Compiler2: 2.02 KB object code size  0.2/0.3/[0.2]

