Circuit: * C:\Users\Harshith\Desktop\IITH\Analog circuits\Mini-Project2\Draft1.asc


Date: Mon Nov 01 23:53:40 2021
Total elapsed time: 0.055 seconds.

tnom = 27
temp = 27
method = trap
totiter = 0
traniter = 0
tranpoints = 0
accept = 0
rejected = 0
matrix size = 4
fillins = 0
solver = Normal

