Circuit: * C:\Users\Harshith\Desktop\IITH\Analog circuits\Mini-Project2\Mini-Project2.asc

Direct Newton iteration for .op point succeeded.
N-Period=1
Fourier components of V(n007)
DC component:4.33096e-005

Harmonic	Frequency	 Fourier 	Normalized	 Phase  	Normalized
 Number 	  [Hz]   	Component	 Component	[degree]	Phase [deg]
    1   	1.000e+03	1.004e-02	1.000e+00	 -179.31°	    0.00°
    2   	2.000e+03	3.373e-05	3.359e-03	   89.74°	  269.05°
    3   	3.000e+03	7.655e-06	7.623e-04	 -178.77°	    0.55°
    4   	4.000e+03	4.853e-07	4.832e-05	  -29.91°	  149.40°
    5   	5.000e+03	3.444e-07	3.429e-05	   24.34°	  203.66°
    6   	6.000e+03	1.975e-07	1.967e-05	   57.49°	  236.81°
    7   	7.000e+03	2.993e-08	2.981e-06	  128.02°	  307.33°
    8   	8.000e+03	1.366e-07	1.360e-05	  -69.86°	  109.46°
    9   	9.000e+03	2.371e-07	2.361e-05	  -30.05°	  149.27°
Total Harmonic Distortion: 0.344508%(0.349127%)



Date: Thu Oct 21 22:47:01 2021
Total elapsed time: 0.170 seconds.

tnom = 27
temp = 27
method = modified trap
totiter = 2088
traniter = 2082
tranpoints = 1042
accept = 1042
rejected = 0
matrix size = 23
fillins = 0
solver = Normal
Matrix Compiler1: 2.09 KB object code size  0.7/0.4/[0.3]
Matrix Compiler2: off  [0.3]/0.4/0.4

