Circuit: * C:\Users\Harshith\Desktop\IITH\Analog\test1.asc


Date: Mon Sep 27 20:42:27 2021
Total elapsed time: 0.896 seconds.

tnom = 27
temp = 27
method = trap
totiter = 22005
traniter = 0
tranpoints = 0
accept = 0
rejected = 0
matrix size = 8
fillins = 0
solver = Normal
Matrix Compiler1: 300 bytes object code size  0.1/0.1/[0.0]
Matrix Compiler2: 668 bytes object code size  0.1/0.1/[0.1]

